LTspice 24.0.12 for Windows
Circuit: * C:\Users\Intercept\Desktop\EQUIPMENT\Vestax PDX-2000\Vestax PDX-2000 Phono Preamp\spice_new\Vestax PDX-2000 Phono v1.1.asc
Start Time: Sat Aug 24 09:06:13 2024
solver = Normal
Maximum thread count: 16



u1:1:d4:idiode: Emission coefficient, N=0.01, too small, limited to 0.1
u1:1:d3:idiode: Emission coefficient, N=0.01, too small, limited to 0.1
u1:1:d2:idiode: Emission coefficient, N=0.01, too small, limited to 0.1
u1:1:d1:idiode: Emission coefficient, N=0.01, too small, limited to 0.1
u2:1:d4:idiode: Emission coefficient, N=0.01, too small, limited to 0.1
u2:1:d3:idiode: Emission coefficient, N=0.01, too small, limited to 0.1
u2:1:d2:idiode: Emission coefficient, N=0.01, too small, limited to 0.1
u2:1:d1:idiode: Emission coefficient, N=0.01, too small, limited to 0.1
Direct Newton iteration failed to find .op point.  (Use ".option noopiter" to skip.)
Starting Gmin stepping
Gmin = 10
Gmin = 1.07374
Gmin = 0.115292
Gmin = 0.0123794
Gmin = 0.00132923
Gmin = 0.000142725
Gmin = 1.5325e-05
Gmin = 1.6455e-06
Gmin = 1.76685e-07
Gmin = 1.89714e-08
Gmin = 2.03704e-09
Gmin = 2.18725e-10
Gmin = 2.34854e-11
Gmin = 2.52173e-12
Gmin = 2.70769e-13
Gmin = 0
Gmin stepping succeeded in finding the operating point.

.step x=0



.step x=1



.step x=2



.step x=3



.step x=4



.step x=5



.step x=6



.step x=7



.step x=8



.step x=9



.step x=10



.step x=11



.step x=12



.step x=13



.step x=14



.step x=15



.step x=16



.step x=17



.step x=18



.step x=19



.step x=20



.step x=21



.step x=22



.step x=23



.step x=24



.step x=25



.step x=26



.step x=27



.step x=28



.step x=29



.step x=30



.step x=31



.step x=32



.step x=33



.step x=34



.step x=35



.step x=36



.step x=37



.step x=38



.step x=39



.step x=40



.step x=41



.step x=42



.step x=43



.step x=44



.step x=45



.step x=46



.step x=47



.step x=48



.step x=49
tnom = 27
temp = 27
method = modified trap
.step x=50
Total elapsed time: 1.419 seconds.

